15
H = 52.5, H(+conf) = 52.5, S = 125.0, S(+conf) = 125.0
Br     3.705791    -0.051942    -1.336166
C      1.921901    -0.022725    -0.695514
C      1.041266     0.982771    -1.109378
C      1.480775    -1.008846     0.194795
Br     1.633865     2.320151    -2.314787
C     -0.273934     0.994025    -0.629406
Br     2.661037    -2.376904     0.764653
C      0.163905    -0.973686     0.657731
Br    -1.459935     2.374675    -1.205928
C     -0.741894     0.020156     0.261688
Br    -0.450391    -2.309629     1.870416
C     -2.147572     0.008542     0.791927
H     -2.141611     0.070753     1.881312
H     -2.643201    -0.927491     0.529604
H     -2.730503     0.832949     0.399454
