13
dHf = -3.8, dHf(+conf) = -3.8 kcal/mol, S = 103.9, S(+conf) = 103.9 cal/(mol K)
H     -2.948179    -0.188416    -0.067633
O     -2.425151     0.623953     0.014098
C     -1.117639     0.307742     0.032237
C     -0.166536     1.328147     0.144620
C     -0.638815    -1.003508    -0.055951
Br    -0.753974     3.129841     0.268096
C      1.192306     1.053456     0.167757
Br    -1.914841    -2.419437    -0.210453
C      0.713557    -1.305355    -0.035184
H      1.902851     1.861326     0.255332
C      1.620930    -0.263333     0.077477
H      1.046788    -2.329532    -0.105407
Br     3.488103    -0.646982     0.108812
