12
H = 71.3, H(+conf) = 71.3, S = 125.7, S(+conf) = 125.7
Br    -1.820927     2.692333     0.538160
C     -0.773945     1.144316     0.228761
C      0.621668     1.242992     0.171235
C     -1.395598    -0.098669     0.057542
Br     1.462627     2.924506     0.402696
C      1.395633     0.098681    -0.057491
Br    -3.283561    -0.232147     0.135288
C     -0.621633    -1.242981    -0.171183
Br     3.283592     0.232170    -0.135307
C      0.773981    -1.144305    -0.228710
Br    -1.462595    -2.924483    -0.402714
Br     1.820959    -2.692310    -0.538177
