23
dHf = 100.6, dHf(+conf) = 100.6 kcal/mol, S = 186.3, S(+conf) = 186.3 cal/(mol K)
Br     2.215922    -2.608011    -1.472099
C      0.915060    -2.523690    -0.101599
C      0.624411    -1.267246     0.438742
C      0.280851    -3.664101     0.388343
O      1.258417    -0.206357    -0.141819
C     -0.340711    -1.143115     1.438495
Br     0.697377    -5.356796    -0.347341
C     -0.648335    -3.549875     1.432227
C      1.856950     0.827646     0.519319
Br    -0.817743     0.581016     2.065699
C     -0.960239    -2.288618     1.952458
Br    -1.486434    -5.100364     2.127390
C      1.596336     2.106611     0.017897
C      2.763428     0.659206     1.566370
Br    -2.231339    -2.119245     3.345518
Br     0.376033     2.251767    -1.419949
C      2.200290     3.223967     0.591973
Br     3.205598    -1.090995     2.145041
C      3.351399     1.780632     2.163736
Br     1.824728     4.947374    -0.092698
C      3.068431     3.063567     1.681338
Br     4.541134     1.549662     3.618447
Br     3.863935     4.581463     2.489312
